
This summary file was generated by TurbSim (v2.00.07a-bjj, 14-Jun-2016) on 25-Jul-2017 at 16:08:31.


Runtime Options:

    500000  Random seed #1
    RANLUX  Type of random number generator
         F  Output binary HH turbulence parameters?
         F  Output formatted turbulence parameters?
         F  Output AeroDyn HH files?
         T  Output AeroDyn FF files?
         F  Output BLADED FF files?
         F  Output tower data?
         F  Output formatted FF files?
         F  Output coherent turbulence time step file?
         T  Clockwise rotation when looking downwind?
 0 -  NONE  IEC turbulence models scaled to exact specified standard deviation


Turbine/Model Specifications:

        29  Vertical grid-point matrix dimension
        29  Horizontal grid-point matrix dimension
     0.050  Time step [seconds]
   630.000  Analysis time [seconds]
   630.000  Usable output time [seconds]
    90.000  Hub height [m]
   138.000  Grid height [m]
   138.000  Grid width [m]
     0.000  Vertical flow angle [degrees]
     0.000  Horizontal flow angle [degrees]


Meteorological Boundary Conditions:

    USRINP  Uniform user-input spectral model
       N/A  IEC standard
       N/A  IEC turbulence characteristic
       N/A  IEC turbulence type
       N/A  IEC Extreme Turbulence Model (ETM) "c" parameter [m/s]
       USR  Wind profile type
    90.000  Reference height [m]
       N/A  Reference wind speed [m/s]
       N/A  Jet height [m]
       N/A  Power law exponent
     0.030  Surface roughness length [m]


Non-IEC Meteorological Boundary Conditions:

    45.000  Site latitude [degrees]
     0.000  Gradient Richardson number
     0.400  Friction or shear velocity [m/s]
       N/A  Mixing layer depth [m]
    -1.500  Mean hub u'w' Reynolds stress
     0.750  Mean hub u'v' Reynolds stress
    -0.850  Mean hub v'w' Reynolds stress


Spatial Coherence Models:

   GENERAL  u-component coherence model
   GENERAL  v-component coherence model
   GENERAL  w-component coherence model
(   13.750, 0.400E-01)  u-component coherence parameters
(    9.850, 0.225E-02)  v-component coherence parameters
(    9.500, 0.550E-02)  w-component coherence parameters
     0.500  Coherence exponent


User-Defined Profiles:

  Height   Wind Speed   Horizontal Angle
   (m)        (m/s)          (deg)      
  ------   ----------   ----------------
  180.00      14.93          17.86
  170.00      14.18          15.87
  160.00      13.43          13.89
  150.00      12.67          11.90
  140.00      11.91           9.92
  130.00      11.14           7.94
  120.00      10.36           5.95
  110.00       9.58           3.97
  100.00       8.80           1.98
   90.00       8.00           0.00
   80.00       7.20         358.02
   70.00       6.38         356.03
   60.00       5.55         354.05
   50.00       4.71         352.06
   40.00       3.86         350.08
   30.00       2.98         348.10
   20.00       2.07         346.11
   10.00       1.11         344.13
    0.00       0.00         342.14


You have requested that the following file(s) be generated:

   \\monsoon-data\Confidential\UQ\UQ_Scripting\Row_0_BIN_1\Turbsim_inputs\Turbsim_input_file_8ms_row_0_seed_0.bts (AeroDyn/TurbSim full-field wind file)


Turbulence Simulation Scaling Parameter Summary:

   Turbulence model used                            =  Uniform user-input
   Gradient Richardson number                       =    0.000
   Monin-Obukhov (M-O) z/L parameter                =    0.000
   Monin-Obukhov (M-O) length scale                 =  Infinite
   Mean wind speed at hub height                    =    8.000 m/s

   Wind profile type                                =  Linear interpolation of user-defined profile
   Equivalent power law exponent across rotor disk  =    0.900
   Mean shear across rotor disk                     =    0.081 (m/s)/m
   Assumed rotor diameter                           =  138.000 m
   Surface roughness length                         =    0.030 m

   Nyquist frequency of turbulent wind field        =   10.000 Hz

   Number of time steps in the FFT                  =    12600
   Number of time steps output                      =    12600
   Number of points simulated                       =      841


Mean Flow Angles:

   Vertical   =   0.0 degrees
   Horizontal =   0.0 degrees

Mean Wind Speed Profile:

   Height    Wind Speed   Horizontal Angle  Vertical Angle  U-comp (X)   V-comp (Y)   W-comp (Z)
     (m)        (m/s)         (degrees)       (degrees)       (m/s)        (m/s)        (m/s)   
   ------    ----------   ----------------  --------------  ----------   ----------   ----------
    159.0       13.35           13.69            0.00         12.97         3.16         0.00
    154.1       12.98           12.71            0.00         12.66         2.86         0.00
    149.1       12.60           11.73            0.00         12.34         2.56         0.00
    144.2       12.23           10.76            0.00         12.01         2.28         0.00
    139.3       11.85            9.78            0.00         11.68         2.01         0.00
    134.4       11.47            8.80            0.00         11.34         1.76         0.00
    129.4       11.09            7.82            0.00         10.99         1.51         0.00
    124.5       10.71            6.85            0.00         10.64         1.28         0.00
    119.6       10.33            5.87            0.00         10.28         1.06         0.00
    114.6        9.95            4.89            0.00          9.91         0.85         0.00
    109.7        9.56            3.91            0.00          9.54         0.65         0.00
    104.8        9.17            2.93            0.00          9.16         0.47         0.00
     99.9        8.78            1.96            0.00          8.78         0.30         0.00
     94.9        8.39            0.98            0.00          8.39         0.14         0.00
     90.0        8.00          360.00            0.00          8.00         0.00         0.00
     85.1        7.60          359.02            0.00          7.60        -0.13         0.00
     80.1        7.21          358.04            0.00          7.20        -0.25         0.00
     75.2        6.81          357.07            0.00          6.80        -0.35         0.00
     70.3        6.40          356.09            0.00          6.39        -0.44         0.00
     65.4        6.00          355.11            0.00          5.98        -0.51         0.00
     60.4        5.59          354.13            0.00          5.56        -0.57         0.00
     55.5        5.18          353.15            0.00          5.14        -0.62         0.00
     50.6        4.76          352.18            0.00          4.72        -0.65         0.00
     45.6        4.34          351.20            0.00          4.29        -0.66         0.00
     40.7        3.92          350.22            0.00          3.86        -0.67         0.00
     35.8        3.49          349.24            0.00          3.42        -0.65         0.00
     30.9        3.05          348.27            0.00          2.99        -0.62         0.00
     25.9        2.61          347.29            0.00          2.54        -0.57         0.00
     21.0        2.16          346.31            0.00          2.10        -0.51         0.00


Harvested Random Seeds after Generation of the Random Numbers:

    147690013 K 1
            0 K 2


Scaling statistics from the hub grid point:

   Cross-Component  Scaling Factor
   ---------------  --------------
   u'w'                0.77752E-01
   u'v'                0.28867E-01
   v'w'                0.19594E-01


Hub-Height Simulated Turbulence Statistical Summary:

   Type of Wind        Min (m/s)   Mean (m/s)    Max (m/s)  Sigma (m/s)       TI (%)
   ----------------    ---------   ----------    ---------  -----------       ------
   Longitudinal (u)        -0.92         8.00        15.10        2.698       33.722
   Lateral (v)            -10.47        -0.00         8.71        3.331       41.638
   Vertical (w)            -7.36         0.00         7.71        2.292       28.650
   U component             -0.92         8.00        15.10        2.698       33.722
   V component            -10.47         0.00         8.71        3.331       41.638
   W component             -7.36         0.00         7.71        2.292       28.650
   Horizontal (U&V)         0.41         8.73        16.22        2.499       28.647
   Total                    0.59         9.04        16.23        2.421       26.777

                       Min Reynolds     Mean Reynolds    Max Reynolds    Correlation
   Product             Stress (m/s)^2   Stress (m/s)^2   Stress (m/s)^2  Coefficient
   ----------------    --------------   --------------   --------------  -----------
   u'w'                    -31.783            -1.500            24.105        -0.243
   u'v'                    -39.281             0.750            54.031         0.083
   v'w'                    -42.007            -0.850            35.702        -0.111


   Friction Velocity (Ustar)  =      1.225 m/s
   Maximum Instantaneous TKE  =     62.883 (m/s)^2
   Maximum Instantaneous CTKE =     29.750 (m/s)^2


Grid Point Variance Summary:

   Y-coord  -69.00  -64.07  -59.14  -54.21  -49.29  -44.36  -39.43  -34.50  -29.57  -24.64  -19.71  -14.79   -9.86   -4.93    0.00    4.93    9.86   14.79   19.71   24.64   29.57   34.50   39.43   44.36   49.29   54.21   59.14   64.07   69.00

   Height   Standard deviation at grid points for the u component:
   159.00    3.305   2.894   2.732   2.928   4.126   3.098   3.324   2.558   2.720   3.257   3.239   3.585   3.592   3.707   3.951   3.555   3.434   2.782   3.583   2.755   3.266   2.709   2.800   3.012   2.567   2.818   3.642   3.910   4.421
   154.07    3.116   2.967   3.029   2.867   3.613   3.550   3.765   3.111   2.537   3.146   2.955   3.601   3.537   3.563   3.354   3.569   2.751   3.032   3.478   3.561   3.468   3.075   3.350   3.473   3.168   3.355   3.342   3.844   4.155
   149.14    3.011   3.891   3.843   3.382   3.592   3.726   3.933   3.132   3.311   3.368   3.099   3.347   4.061   3.711   3.157   3.000   3.094   3.187   3.204   3.023   3.384   3.292   3.232   3.215   3.365   2.810   3.029   3.721   3.022
   144.21    4.054   3.636   3.877   2.528   2.741   3.575   3.527   2.804   3.325   2.846   2.897   3.328   3.402   2.940   3.167   3.260   3.198   2.480   3.543   3.449   3.675   3.122   3.017   3.900   3.623   2.582   3.430   3.736   3.606
   139.29    3.898   3.417   3.856   3.081   3.438   4.432   3.230   3.027   3.028   2.959   3.480   3.253   2.847   2.891   2.828   3.302   3.279   3.462   3.321   3.332   3.727   2.783   2.998   2.905   4.052   3.212   2.953   3.222   3.557
   134.36    3.562   3.004   3.383   3.404   3.801   4.347   4.401   3.344   2.753   2.549   3.209   3.463   2.600   3.665   3.626   3.390   3.668   3.558   3.112   2.983   3.566   2.924   3.054   3.278   3.455   3.746   3.380   2.700   2.969
   129.43    3.151   3.677   3.098   3.361   3.124   3.459   3.130   3.217   2.690   3.213   3.330   3.792   2.526   3.716   3.176   3.431   3.598   3.389   3.501   3.503   4.164   3.514   4.072   2.708   2.840   3.247   3.241   2.829   3.255
   124.50    2.514   3.491   3.106   2.857   3.170   2.699   3.222   2.790   3.043   3.493   3.274   4.027   3.335   3.582   2.905   2.697   3.459   3.233   3.476   3.221   3.819   4.214   4.318   3.464   3.549   2.967   2.694   3.414   2.920
   119.57    3.135   3.038   3.044   3.023   2.848   3.532   3.056   3.291   3.206   3.071   3.086   3.555   3.770   3.483   3.035   3.185   2.775   3.226   3.193   3.125   3.636   3.452   3.458   3.377   3.288   2.966   3.325   3.118   3.100
   114.64    3.441   3.267   3.420   3.001   3.269   3.771   3.102   2.778   2.886   2.768   2.651   2.922   3.093   3.175   2.892   2.887   2.770   3.884   3.643   3.576   3.442   3.537   3.564   3.039   2.946   3.011   2.959   3.181   2.704
   109.71    3.716   3.603   3.713   3.461   3.518   3.055   3.315   3.278   3.079   2.855   3.781   4.313   3.674   3.126   3.095   3.336   3.463   3.688   3.698   3.584   3.140   2.657   2.955   3.247   3.417   4.130   3.199   2.987   2.934
   104.79    3.271   3.750   3.824   3.530   3.188   3.089   2.843   3.484   3.199   3.521   3.339   3.363   3.274   3.417   3.285   3.077   3.212   3.164   4.149   3.600   2.975   2.580   2.867   3.134   3.747   3.621   3.422   2.661   3.140
    99.86    2.935   3.175   3.487   3.071   2.885   3.202   3.320   3.653   3.485   2.741   3.690   2.896   2.942   3.234   3.167   3.164   3.213   2.914   3.472   3.289   2.617   3.364   3.720   3.596   3.329   3.436   3.586   3.439   3.451
    94.93    3.079   2.678   3.129   3.480   2.783   3.286   3.267   3.230   3.416   2.734   3.316   4.122   3.429   2.775   2.815   3.353   3.189   2.954   3.007   3.061   3.062   3.769   3.842   3.888   2.648   3.466   3.944   4.108   3.301
    90.00    3.260   3.080   3.266   3.249   3.268   2.757   2.950   3.436   3.428   3.008   3.406   3.626   3.283   3.246   2.698   2.831   3.276   3.721   3.813   3.922   3.245   4.178   3.854   3.821   3.693   3.198   3.302   3.741   3.716
    85.07    3.586   3.399   3.261   3.408   2.681   3.002   3.341   3.225   2.956   3.038   2.891   3.473   2.974   3.024   3.566   3.277   3.626   3.100   3.215   3.945   3.527   3.430   3.000   3.020   3.153   2.608   3.025   4.184   4.293
    80.14    3.481   4.124   4.055   2.495   3.184   3.190   3.341   3.528   2.333   3.185   3.321   4.076   3.567   2.881   3.305   2.869   3.245   2.819   3.706   3.635   3.145   3.154   3.014   3.210   3.507   3.336   3.817   4.137   4.493
    75.21    3.264   2.980   3.045   3.035   3.999   4.270   3.545   3.548   3.295   3.429   3.074   3.408   3.516   3.218   3.142   3.343   4.126   3.339   3.142   3.570   3.102   3.113   2.332   2.742   3.342   3.104   3.188   3.824   3.394
    70.29    3.562   4.077   2.917   2.779   3.371   3.351   3.237   3.522   3.323   3.519   2.782   2.693   3.253   2.961   4.006   3.834   3.848   3.561   3.124   3.719   3.398   2.847   3.612   3.234   2.324   3.188   3.085   3.190   3.397
    65.36    3.013   3.876   3.561   2.731   3.309   3.273   3.009   3.144   2.763   3.056   2.983   3.376   2.673   3.460   4.044   3.560   2.979   3.306   3.662   3.653   3.476   3.363   3.505   3.511   2.647   3.383   3.544   2.937   3.332
    60.43    3.188   3.231   3.649   3.422   2.964   3.359   2.661   3.141   3.115   3.683   3.080   2.899   3.703   4.018   3.279   2.918   2.945   3.528   3.213   3.360   3.738   2.801   3.136   2.966   3.604   3.552   2.781   3.235   3.239
    55.50    3.422   3.384   3.050   2.857   2.767   3.338   3.014   3.047   3.718   3.181   3.373   3.831   3.659   3.286   3.034   2.546   3.268   3.526   3.699   3.786   2.894   3.392   3.940   3.383   3.538   2.770   3.555   3.520   2.923
    50.57    3.141   3.257   2.812   3.225   2.991   3.098   3.450   2.913   3.174   3.500   3.073   3.154   2.701   2.824   3.428   3.315   3.664   3.318   3.295   3.358   3.216   3.427   3.986   3.856   3.296   3.420   3.163   3.174   3.185
    45.64    3.146   3.228   3.374   3.563   3.247   2.889   3.211   3.505   2.842   2.872   2.821   2.937   3.039   3.362   3.426   3.123   2.911   3.704   3.213   3.329   3.415   3.997   3.879   3.301   3.069   3.262   3.477   3.729   3.859
    40.71    3.562   3.701   3.878   3.075   3.142   3.607   3.412   2.902   3.602   3.126   2.970   3.523   3.455   3.137   3.555   2.956   3.129   2.957   2.744   3.033   2.977   3.180   3.353   3.334   2.810   2.850   3.400   2.702   3.053
    35.79    2.799   3.445   3.294   3.159   3.084   3.243   3.457   3.216   3.601   3.039   3.327   2.971   3.102   3.468   3.131   3.401   3.470   3.375   3.175   2.905   3.443   3.495   2.768   3.333   3.504   2.947   2.950   3.088   3.180
    30.86    3.163   3.255   2.627   3.094   2.798   2.778   3.361   3.347   3.079   3.514   3.671   3.045   2.992   3.520   3.454   3.088   3.537   3.072   3.005   3.211   3.371   3.344   3.632   3.276   3.975   3.147   3.255   3.407   3.458
    25.93    3.374   3.029   3.445   3.494   3.518   3.548   3.527   3.042   3.340   3.141   3.326   3.012   3.281   3.735   3.417   3.535   3.145   3.624   3.219   2.970   3.252   3.289   3.048   3.432   3.195   3.377   3.671   3.551   3.035
    21.00    3.299   3.058   3.497   3.255   3.335   3.456   3.134   3.706   3.464   3.334   3.261   3.531   2.987   3.420   3.351   3.463   3.415   3.485   3.020   3.463   2.971   3.433   3.377   3.534   3.284   3.388   3.214   3.068   2.981

   Height   Standard deviation at grid points for the v component:
   159.00    3.133   3.343   3.435   3.361   3.324   3.234   3.512   3.625   3.795   3.818   3.668   3.647   3.510   3.505   3.607   3.760   3.587   3.462   3.411   3.347   3.421   3.520   3.429   3.175   3.188   3.309   3.300   3.241   3.305
   154.07    3.249   3.363   3.518   3.399   3.347   3.480   3.711   4.005   4.196   4.101   3.795   3.656   3.531   3.561   3.517   3.693   3.426   3.335   3.302   3.235   3.232   3.186   3.229   3.145   3.077   3.074   3.200   3.109   3.113
   149.14    3.436   3.545   3.584   3.555   3.566   3.630   3.907   3.999   4.120   4.088   3.951   3.781   3.610   3.592   3.615   3.522   3.324   3.223   3.098   3.062   3.042   2.981   3.110   3.057   3.136   3.033   3.064   3.060   3.114
   144.21    3.469   3.552   3.880   3.850   3.890   3.969   4.111   3.888   4.027   4.202   4.155   3.942   3.856   3.885   3.652   3.335   3.264   3.086   2.992   2.979   2.879   2.798   2.934   3.059   3.040   3.172   3.013   2.891   3.020
   139.29    3.422   3.658   3.809   3.815   3.998   4.244   4.293   4.027   4.148   4.270   4.445   4.282   4.152   4.214   3.646   3.185   2.936   2.961   2.842   2.866   2.872   2.789   3.009   2.984   2.907   3.010   2.982   2.890   2.992
   134.36    3.327   3.613   3.872   3.875   4.126   4.336   4.164   4.160   4.264   4.476   4.454   4.374   4.242   4.082   3.516   3.139   2.903   2.706   2.776   2.755   2.833   2.906   2.988   3.003   3.014   3.000   2.912   2.956   2.937
   129.43    3.630   3.920   3.954   3.995   4.367   4.320   4.248   4.290   4.275   4.546   4.189   4.141   4.040   3.744   3.423   3.196   2.785   2.723   2.732   2.766   2.878   2.907   3.022   2.977   3.049   3.146   2.906   3.035   3.101
   124.50    3.803   4.070   4.100   4.188   4.404   4.287   4.504   4.639   4.830   4.785   4.419   4.217   3.888   3.614   3.563   3.303   3.000   2.738   2.756   2.786   2.924   2.996   2.926   2.970   3.034   3.017   3.034   3.065   3.109
   119.57    3.750   4.043   4.072   4.410   4.474   4.445   4.600   4.876   5.086   4.811   4.403   4.183   3.865   3.692   3.512   3.316   3.111   2.843   2.820   2.864   2.818   2.941   2.866   2.918   2.933   2.965   3.066   3.032   3.067
   114.64    3.934   3.948   4.185   4.371   4.368   4.524   4.874   4.977   5.077   4.837   4.359   4.006   3.824   3.504   3.442   3.318   2.984   2.955   2.827   2.766   2.671   2.767   2.773   2.751   2.868   2.946   2.995   3.016   3.204
   109.71    3.963   3.841   3.997   4.090   4.530   4.557   4.632   4.788   4.899   4.602   4.160   3.939   3.711   3.616   3.384   3.073   2.945   2.895   2.755   2.672   2.632   2.717   2.840   2.929   2.981   2.933   3.104   3.018   3.208
   104.79    3.698   3.733   3.884   4.145   4.448   4.415   4.339   4.413   4.485   4.143   4.008   4.084   3.830   3.696   3.402   3.268   3.167   2.964   2.877   2.679   2.620   2.691   3.006   3.177   3.172   3.001   3.149   3.178   3.397
    99.86    3.589   3.554   3.646   3.835   4.058   3.986   4.038   3.961   4.114   3.867   3.970   3.753   3.724   3.727   3.496   3.370   3.322   3.112   2.935   2.768   2.663   2.752   3.079   3.157   3.258   3.191   3.246   3.357   3.467
    94.93    3.685   3.754   3.701   3.716   3.821   3.717   3.799   3.753   3.702   3.567   3.745   3.602   3.534   3.452   3.346   3.167   3.172   2.934   2.705   2.656   2.724   2.907   3.069   3.196   3.357   3.265   3.240   3.420   3.482
    90.00    4.043   3.955   3.726   3.630   3.668   3.726   3.736   3.444   3.301   3.381   3.538   3.672   3.669   3.525   3.331   3.108   3.010   2.742   2.579   2.633   2.845   3.000   3.298   3.289   3.437   3.304   3.235   3.345   3.567
    85.07    4.331   4.054   3.881   3.716   3.709   3.619   3.537   3.207   3.136   3.369   3.632   3.545   3.519   3.375   3.250   3.029   2.888   2.718   2.653   2.653   2.845   3.036   3.307   3.480   3.400   3.355   3.187   3.253   3.437
    80.14    4.378   4.103   4.060   3.747   3.603   3.264   3.168   3.053   2.917   3.262   3.484   3.391   3.312   3.256   3.254   2.928   2.722   2.676   2.722   2.680   2.957   3.201   3.315   3.530   3.421   3.322   3.267   3.292   3.575
    75.21    4.195   3.886   3.777   3.621   3.363   3.091   2.865   2.963   3.075   3.057   3.237   3.274   3.374   3.395   3.150   2.904   2.804   2.794   2.896   2.893   2.890   3.080   3.160   3.359   3.503   3.483   3.386   3.554   3.703
    70.29    3.851   3.640   3.564   3.550   3.397   3.331   2.951   2.846   3.070   3.113   3.103   3.210   3.494   3.693   3.265   3.027   2.948   2.827   2.980   2.979   3.048   3.342   3.428   3.601   3.702   3.718   3.814   3.898   4.064
    65.36    3.441   3.393   3.119   3.046   3.111   2.913   2.771   2.967   3.151   3.236   3.305   3.206   3.390   3.453   3.329   3.185   3.012   2.872   3.145   3.241   3.368   3.424   3.460   3.779   3.858   3.995   4.254   4.179   4.185
    60.43    3.292   3.022   2.833   2.633   2.773   2.710   2.917   3.165   3.288   3.316   3.307   3.237   3.255   3.220   3.075   3.076   3.011   3.028   3.240   3.409   3.471   3.420   3.522   3.724   4.046   4.135   4.080   4.019   4.121
    55.50    3.014   2.866   2.555   2.588   2.725   2.902   3.117   3.238   3.220   3.191   3.247   3.142   3.337   3.207   2.966   3.060   3.146   3.228   3.477   3.635   3.495   3.555   3.661   3.709   4.034   4.097   3.887   3.837   3.857
    50.57    2.913   2.793   2.671   2.568   2.960   3.307   3.358   3.147   3.144   3.091   3.322   3.227   3.112   3.336   3.231   3.232   3.296   3.317   3.570   3.598   3.547   3.504   3.668   3.764   4.035   4.043   3.729   3.638   3.334
    45.64    2.881   2.893   2.798   2.695   3.146   3.498   3.549   3.268   3.155   3.229   3.265   3.279   3.240   3.261   3.366   3.385   3.456   3.596   3.492   3.608   3.483   3.209   3.364   3.606   3.823   4.046   3.674   3.388   3.319
    40.71    2.859   2.814   2.646   2.898   3.237   3.627   3.661   3.423   3.281   3.360   3.105   3.069   3.230   3.141   3.435   3.551   3.643   3.568   3.386   3.352   3.238   2.981   3.165   3.433   3.575   3.695   3.589   3.376   3.370
    35.79    2.997   2.982   2.861   2.935   3.315   3.476   3.471   3.511   3.385   3.108   3.130   3.320   3.234   3.426   3.502   3.611   3.480   3.513   3.340   3.254   3.009   2.983   3.149   3.461   3.636   3.713   3.703   3.545   3.347
    30.86    3.362   3.277   3.084   2.966   3.248   3.466   3.392   3.376   3.179   3.042   3.269   3.544   3.578   3.452   3.560   3.500   3.374   3.437   3.349   3.112   3.082   2.994   3.124   3.318   3.415   3.586   3.801   3.596   3.184
    25.93    3.242   3.263   3.385   3.165   3.225   3.289   3.454   3.357   3.181   3.099   3.290   3.285   3.642   3.445   3.803   3.645   3.683   3.656   3.414   3.130   3.000   2.671   2.908   3.008   3.208   3.440   3.639   3.531   3.405
    21.00    3.400   3.190   3.214   3.110   3.123   3.396   3.587   3.423   3.368   3.238   3.085   3.169   3.276   3.369   3.757   3.742   3.901   3.830   3.545   3.233   2.825   2.784   2.911   2.888   3.100   3.328   3.500   3.260   3.012

   Height   Standard deviation at grid points for the w component:
   159.00    2.717   2.455   2.461   2.270   2.332   2.339   2.214   2.126   2.038   2.171   2.252   2.262   2.120   2.122   2.178   2.088   2.029   2.018   1.995   2.162   2.250   2.270   2.124   2.040   2.082   1.967   1.931   1.879   2.019
   154.07    2.479   2.414   2.260   2.231   2.282   2.215   2.178   2.168   2.166   2.391   2.263   2.146   2.054   1.945   1.891   1.834   1.838   1.920   2.024   2.141   2.194   2.094   2.205   2.028   1.960   1.824   1.845   1.923   1.905
   149.14    2.311   2.240   2.272   2.255   2.241   2.226   2.116   2.098   2.134   2.192   2.194   2.167   2.048   1.889   1.744   1.742   1.756   1.941   1.997   2.093   2.036   2.125   2.072   1.870   1.821   1.780   1.842   1.866   1.862
   144.21    2.192   2.120   2.234   2.087   2.138   2.325   2.285   2.264   2.245   2.080   2.009   2.081   2.039   1.936   1.893   1.814   1.798   1.941   1.994   2.025   2.077   2.051   1.980   1.873   1.865   1.996   2.013   2.034   2.009
   139.29    2.121   2.050   2.135   2.069   2.068   2.238   2.259   2.240   2.094   1.935   1.843   2.035   2.082   1.993   2.111   2.071   1.986   2.104   2.053   2.135   2.090   1.883   1.829   1.879   1.940   2.008   2.184   2.243   2.149
   134.36    1.883   1.944   2.135   2.062   2.063   2.247   2.296   2.087   2.071   1.910   1.847   1.999   2.130   2.059   2.105   2.177   2.202   2.211   2.220   2.180   2.138   1.965   1.889   1.914   2.040   2.038   2.223   2.401   2.376
   129.43    1.706   1.783   1.893   1.972   2.092   2.354   2.446   2.011   1.848   1.872   1.863   1.947   2.089   2.042   2.131   2.317   2.495   2.321   2.157   2.254   2.183   1.956   1.821   1.896   1.942   1.997   2.132   2.368   2.453
   124.50    1.574   1.647   1.714   1.903   2.135   2.161   2.275   2.108   1.882   1.811   1.789   2.007   2.148   2.185   2.287   2.305   2.341   2.178   2.160   2.205   2.239   1.947   1.845   1.884   1.986   2.105   2.125   2.238   2.419
   119.57    1.538   1.596   1.743   1.894   1.942   1.985   2.015   1.922   1.848   1.925   1.965   2.111   2.126   2.146   2.165   2.137   2.246   2.058   1.999   2.188   2.316   2.253   2.026   1.945   2.090   2.045   2.079   2.111   2.207
   114.64    1.743   1.653   1.788   1.811   1.845   1.814   1.836   1.849   1.872   1.939   1.928   2.076   2.012   2.003   2.017   2.102   2.240   2.218   2.098   2.134   2.270   2.357   2.307   2.146   2.201   2.056   2.126   2.099   2.216
   109.71    1.891   1.880   1.836   1.845   1.841   1.881   1.806   1.857   1.913   1.992   2.083   2.155   2.176   2.006   1.908   2.022   2.223   2.343   2.248   2.272   2.335   2.499   2.489   2.353   2.177   1.919   2.021   2.126   2.172
   104.79    2.133   2.010   2.008   1.917   1.892   1.799   1.835   1.836   1.969   2.020   2.176   2.222   2.148   2.044   1.916   2.020   2.283   2.562   2.550   2.619   2.509   2.415   2.381   2.399   2.098   2.066   1.911   1.997   2.160
    99.86    2.306   2.292   2.210   2.151   1.928   1.942   2.049   2.053   1.998   2.013   2.149   2.215   2.145   2.042   1.972   2.111   2.355   2.568   2.579   2.688   2.698   2.496   2.410   2.304   2.168   2.051   2.079   2.004   2.145
    94.93    2.539   2.511   2.480   2.479   2.274   2.233   2.232   1.968   1.889   1.954   2.143   2.297   2.066   2.137   2.129   2.283   2.293   2.567   2.643   2.679   2.656   2.265   2.289   2.273   2.073   2.008   1.984   2.143   2.333
    90.00    2.646   2.545   2.614   2.684   2.584   2.327   2.154   2.087   2.022   2.111   2.099   2.204   2.170   2.208   2.292   2.476   2.497   2.621   2.570   2.771   2.647   2.375   2.123   2.137   1.891   1.871   2.053   2.089   2.316
    85.07    2.675   2.876   2.659   2.876   2.816   2.654   2.370   2.258   2.112   2.149   2.271   2.261   2.125   2.246   2.218   2.398   2.416   2.381   2.488   2.767   2.662   2.392   2.083   2.008   1.841   1.926   1.992   2.186   2.370
    80.14    2.594   2.757   2.815   2.830   2.726   2.594   2.433   2.245   2.182   2.372   2.357   2.169   2.230   2.237   2.247   2.146   2.046   2.113   2.374   2.635   2.624   2.398   2.208   2.036   2.024   1.958   1.992   2.174   2.212
    75.21    2.429   2.779   2.829   2.786   2.771   2.449   2.127   2.077   2.217   2.345   2.281   2.308   2.231   2.150   2.171   1.856   1.755   1.920   2.187   2.380   2.385   2.390   2.316   2.261   2.133   1.946   1.996   2.057   2.198
    70.29    2.239   2.539   2.795   2.785   2.715   2.481   2.404   2.204   2.188   2.207   2.051   2.009   2.235   2.216   1.998   1.756   1.694   1.957   2.028   2.169   2.306   2.392   2.449   2.387   2.127   1.854   1.937   2.074   2.027
    65.36    2.245   2.420   2.769   3.017   2.848   2.583   2.489   2.417   2.090   2.128   2.156   1.993   2.116   2.027   1.919   1.834   1.811   1.855   2.068   2.366   2.227   2.354   2.405   2.430   2.174   2.057   1.816   1.818   1.868
    60.43    2.279   2.469   2.670   2.879   2.673   2.726   2.562   2.322   2.236   2.262   2.379   2.239   2.107   1.948   1.872   1.919   1.970   1.876   2.006   2.115   2.090   2.087   2.209   2.193   2.016   1.945   1.742   1.848   1.782
    55.50    2.438   2.621   2.704   2.798   2.810   2.725   2.667   2.536   2.461   2.504   2.526   2.248   2.147   1.981   1.808   2.074   2.053   1.936   1.969   1.961   2.098   2.007   2.012   1.854   1.741   1.660   1.679   1.711   1.645
    50.57    2.704   2.629   3.061   2.932   2.801   2.882   2.747   2.796   2.791   2.677   2.441   2.309   2.153   1.875   1.926   2.005   2.219   2.036   2.111   2.078   2.097   2.134   1.948   1.883   1.668   1.774   1.642   1.637   1.638
    45.64    2.727   2.814   3.145   2.959   2.962   2.968   2.689   2.775   2.653   2.534   2.510   2.279   1.908   1.842   1.887   2.003   2.127   2.123   2.136   2.211   2.344   2.308   1.907   1.809   1.805   1.822   1.753   1.721   1.771
    40.71    2.824   3.092   3.105   2.744   2.975   2.972   2.463   2.615   2.729   2.416   2.221   2.045   1.715   1.714   1.908   2.049   2.093   2.019   2.059   2.304   2.198   2.144   1.919   1.942   1.858   1.908   1.729   1.726   1.843
    35.79    2.665   2.646   2.806   2.771   2.663   2.898   2.648   2.520   2.375   2.260   1.897   1.776   1.720   1.880   2.004   2.277   2.135   2.137   2.101   1.972   2.156   2.140   2.018   1.973   1.932   1.822   1.539   1.742   1.915
    30.86    2.287   2.524   2.713   2.651   2.469   2.504   2.632   2.436   2.284   2.244   1.926   1.812   1.851   1.901   2.027   2.112   2.082   2.007   1.979   1.922   2.198   2.213   2.070   1.985   1.861   1.643   1.464   1.742   2.044
    25.93    2.081   2.235   2.613   2.523   2.280   2.358   2.276   2.296   2.416   2.404   2.255   2.216   2.173   2.021   2.179   2.115   2.058   2.028   1.879   2.045   2.217   2.255   2.312   2.178   1.913   1.543   1.697   1.790   2.118
    21.00    2.078   2.192   2.438   2.269   2.126   1.979   2.097   2.143   2.506   2.632   2.679   2.411   2.287   2.123   2.223   2.240   1.965   2.015   1.946   1.881   1.803   1.844   1.867   2.300   1.977   1.790   1.655   1.892   1.996

   Mean standard deviation across all grid points:
      u component:    3.291 m/s
      v component:    3.418 m/s
      w component:    2.167 m/s


U-component (X) statistics from the interpolated hub point:

   Mean =   8.0000 m/s
   TI   =  33.7215 %


Processing complete.  957.85 CPU seconds used.
